Version 4.1
SHEET 1 1044 680
WIRE 480 0 336 0
WIRE 624 0 544 0
WIRE 1040 32 960 32
WIRE 256 48 96 48
WIRE 336 48 336 0
WIRE 336 48 256 48
WIRE 336 80 336 48
WIRE 624 80 624 0
WIRE 624 80 336 80
WIRE 672 80 624 80
WIRE 96 96 96 48
WIRE 256 96 256 48
WIRE 256 96 224 96
WIRE 304 96 256 96
WIRE 224 128 224 96
WIRE 304 144 304 96
WIRE 96 208 96 176
WIRE 256 208 224 208
WIRE 304 208 256 208
WIRE 752 208 752 80
WIRE 832 208 752 208
WIRE 1040 208 1040 32
WIRE 1040 208 912 208
WIRE 256 240 256 208
FLAG 96 208 0
FLAG 256 240 0
FLAG 864 112 0
SYMBOL voltage 96 80 R0
SYMATTR InstName V1
SYMBOL cap 288 144 R0
SYMATTR InstName C1
SYMBOL res 208 112 R0
SYMATTR InstName R1
SYMBOL cap 544 -16 R90
WINDOW 0 0 32 VBottom 2
WINDOW 3 32 32 VTop 2
SYMATTR InstName C2
SYMBOL res 768 64 R90
WINDOW 0 0 56 VBottom 2
WINDOW 3 32 56 VTop 2
SYMATTR InstName R2
SYMBOL res 928 192 R90
WINDOW 0 0 56 VBottom 2
WINDOW 3 32 56 VTop 2
SYMATTR InstName R3
SYMBOL voltage 928 -144 R180
WINDOW 0 24 96 Left 2
WINDOW 3 24 16 Left 2
SYMATTR InstName V2
SYMATTR Value 3.3
SYMBOL voltage 768 -96 R90
WINDOW 0 -32 56 VBottom 2
WINDOW 3 32 56 VTop 2
SYMATTR InstName V3
SYMATTR Value 1.65
